/*--------------------------------*- C++ -*----------------------------------*\
  =========                 |
  \\      /  F ield         | OpenFOAM: The Open Source CFD Toolbox
   \\    /   O peration     | Website:  https://openfoam.org
    \\  /    A nd           | Version:  12
     \\/     M anipulation  |
\*---------------------------------------------------------------------------*/
FoamFile
{
    format      ascii;
    class       dictionary;
    object      blockMeshDict;
}
// * * * * * * * * * * * * * * * * * * * * * * * * * * * * * * * * * * * * * //

convertToMeters 0.146;

vertices
(
    (0 0 0) //0
    (2 0 0) //1 
    (2.16438 0 0) //2
    (4 0 0) //3
    (0 0.32876 0) //4
    (2 0.32876 0) //5
    (2.16438 0.32876 0) //6
    (4 0.32876 0) //7
    (0 4 0) //8
    (2 4 0) //9
    (2.16438 4 0) //10
    (4 4 0) //11
    (0 0 0.1) //12
    (2 0 0.1) //13
    (2.16438 0 0.1) //14
    (4 0 0.1) //15
    (0 0.32876 0.1) //16
    (2 0.32876 0.1) //17
    (2.16438 0.32876 0.1) //18
    (4 0.32876 0.1) //19
    (0 4 0.1) //20
    (2 4 0.1) //21
    (2.16438 4 0.1) //22
    (4 4 0.1) //23
);

blocks
(
    hex (0 1 5 4 12 13 17 16) (46 16 1) simpleGrading (1 1 1)
    hex (2 3 7 6 14 15 19 18) (38 16 1) simpleGrading (1 1 1)
    hex (4 5 9 8 16 17 21 20) (46 84 1) simpleGrading (1 1 1)
    hex (5 6 10 9 17 18 22 21) (8 84 1) simpleGrading (1 1 1)
    hex (6 7 11 10 18 19 23 22) (38 84 1) simpleGrading (1 1 1)
);

defaultPatch
{
    type empty;
}

boundary
(
    leftWall
    {
        type wall;
        faces
        (
            (0 12 16 4)
            (4 16 20 8)
        );
    }
    rightWall
    {
        type wall;
        faces
        (
            (7 19 15 3)
            (11 23 19 7)
        );
    }
    lowerWall
    {
        type wall;
        faces
        (
            (0 1 13 12)
            (2 3 15 14)
        );
    }
    
    heatedWall
    {
        type wall;
        faces
        (
            (1 5 17 13)
            (5 6 18 17)
            (2 14 18 6)
        );
    }
    
    atmosphere
    {
        type patch;
        faces
        (
            (8 20 21 9)
            (9 21 22 10)
            (10 22 23 11)
        );
    }
);


// ************************************************************************* //
